sol/case33bw.m
function mpc = case33bw
%CASE33BW

%% MATPOWER Case Format : Version 2
mpc.version = '2';

%%-----  Power Flow Data  -----%%
%% system MVA base
mpc.baseMVA = 100;

%% bus data
%	bus_i	type	Pd	Qd	Gs	Bs	area	Vm	Va	baseKV	zone	Vmax	Vmin	lam_P	lam_Q	mu_Vmax	mu_Vmin
mpc.bus = [
	1	3	0	0	0	0	1	1	0	12.66	1	1	1	20.0000	0.0000	9.5357	0.0000;
	2	1	0.1	0.06	0	0	1	0.99703226	0.0144814141	12.66	1	1.1	0.9	20.0959	0.0590	0.0000	0.0000;
	3	1	0.09	0.04	0	0	1	0.982937983	0.0960415813	12.66	1	1.1	0.9	20.5587	0.3529	0.0000	0.0000;
	4	1	0.12	0.08	0	0	1	0.975456413	0.161651448	12.66	1	1.1	0.9	20.8066	0.5271	0.0000	0.0000;
	5	1	0.06	0.03	0	0	1	0.968059232	0.228285364	12.66	1	1.1	0.9	21.0556	0.7033	0.0000	0.0000;
	6	1	0.06	0.02	0	0	1	0.949658177	0.133853263	12.66	1	1.1	0.9	21.5971	1.0979	0.0000	0.0000;
	7	1	0.2	0.1	0	0	1	0.946172614	-0.0964740351	12.66	1	1.1	0.9	21.6705	1.1368	0.0000	0.0000;
	8	1	0.2	0.1	0	0	1	0.941328437	-0.0604030324	12.66	1	1.1	0.9	21.8715	1.2311	0.0000	0.0000;
	9	1	0.06	0.02	0	0	1	0.935059372	-0.13348448	12.66	1	1.1	0.9	22.1057	1.3409	0.0000	0.0000;
	10	1	0.06	0.02	0	0	1	0.929244423	-0.19601403	12.66	1	1.1	0.9	22.3255	1.4461	0.0000	0.0000;
	11	1	0.045	0.03	0	0	1	0.928384417	-0.188761067	12.66	1	1.1	0.9	22.3623	1.4640	0.0000	0.0000;
	12	1	0.06	0.035	0	0	1	0.926884837	-0.177268962	12.66	1	1.1	0.9	22.4271	1.4946	0.0000	0.0000;
	13	1	0.06	0.035	0	0	1	0.920771748	-0.268586519	12.66	1	1.1	0.9	22.6603	1.6024	0.0000	0.0000;
	14	1	0.12	0.08	0	0	1	0.918504993	-0.347267489	12.66	1	1.1	0.9	22.7384	1.6369	0.0000	0.0000;
	15	1	0.06	0.01	0	0	1	0.91709268	-0.384950245	12.66	1	1.1	0.9	22.7962	1.6565	0.0000	0.0000;
	16	1	0.06	0.02	0	0	1	0.91572476	-0.408204927	12.66	1	1.1	0.9	22.8526	1.6782	0.0000	0.0000;
	17	1	0.06	0.02	0	0	1	0.913697546	-0.485473167	12.66	1	1.1	0.9	22.9255	1.7077	0.0000	0.0000;
	18	1	0.09	0.04	0	0	1	0.913090479	-0.495062735	12.66	1	1.1	0.9	22.9495	1.7184	0.0000	0.0000;
	19	1	0.09	0.04	0	0	1	0.996503896	0.00365089571	12.66	1	1.1	0.9	20.1109	0.0658	0.0000	0.0000;
	20	1	0.09	0.04	0	0	1	0.9929263	-0.063327683	12.66	1	1.1	0.9	20.2151	0.1123	0.0000	0.0000;
	21	1	0.09	0.04	0	0	1	0.992221796	-0.0826855617	12.66	1	1.1	0.9	20.2341	0.1207	0.0000	0.0000;
	22	1	0.09	0.04	0	0	1	0.991584377	-0.103033133	12.66	1	1.1	0.9	20.2506	0.1281	0.0000	0.0000;
	23	1	0.09	0.05	0	0	1	0.979352257	0.0650799594	12.66	1	1.1	0.9	20.6742	0.4093	0.0000	0.0000;
	24	1	0.42	0.2	0	0	1	0.972681101	-0.023653927	12.66	1	1.1	0.9	20.8851	0.5103	0.0000	0.0000;
	25	1	0.42	0.2	0	0	1	0.969356112	-0.0673545455	12.66	1	1.1	0.9	20.9918	0.5612	0.0000	0.0000;
	26	1	0.06	0.025	0	0	1	0.94772891	0.173309615	12.66	1	1.1	0.9	21.6585	1.1598	0.0000	0.0000;
	27	1	0.06	0.025	0	0	1	0.945165164	0.229463158	12.66	1	1.1	0.9	21.7394	1.2447	0.0000	0.0000;
	28	1	0.06	0.02	0	0	1	0.933725581	0.312409127	12.66	1	1.1	0.9	22.0303	1.5681	0.0000	0.0000;
	29	1	0.12	0.07	0	0	1	0.925507478	0.390314444	12.66	1	1.1	0.9	22.2387	1.8138	0.0000	0.0000;
	30	1	0.2	0.6	0	0	1	0.921950058	0.495585592	12.66	1	1.1	0.9	22.3471	1.9545	0.0000	0.0000;
	31	1	0.15	0.07	0	0	1	0.917788887	0.411177693	12.66	1	1.1	0.9	22.4952	2.0290	0.0000	0.0000;
	32	1	0.21	0.1	0	0	1	0.916873466	0.38813496	12.66	1	1.1	0.9	22.5262	2.0451	0.0000	0.0000;
	33	1	0.06	0.04	0	0	1	0.916589822	0.380405066	12.66	1	1.1	0.9	22.5341	2.0504	0.0000	0.0000;
];

%% generator data
%	bus	Pg	Qg	Qmax	Qmin	Vg	mBase	status	Pmax	Pmin	Pc1	Pc2	Qc1min	Qc1max	Qc2min	Qc2max	ramp_agc	ramp_10	ramp_30	ramp_q	apf	mu_Pmax	mu_Pmin	mu_Qmax	mu_Qmin
mpc.gen = [
	1	3.91767713	2.43514097	10	-10	1	100	1	10	0	0	0	0	0	0	0	0	0	0	0	0	0.0000	0.0000	0.0000	0.0000;
];

%% branch data
%	fbus	tbus	r	x	b	rateA	rateB	rateC	ratio	angle	status	angmin	angmax	Pf	Qf	Pt	Qt	mu_Sf	mu_St	mu_angmin	mu_angmax
mpc.branch = [
	1	2	0.0575259116	0.0293244886	0	0	0	0	0	0	1	-360	360	3.9177	2.4351	-3.9054	-2.4289	0.0000	0.0000	0.0000	0.0000;
	2	3	0.307595167	0.15666764	0	0	0	0	0	0	1	-360	360	3.4443	2.2078	-3.3925	-2.1814	0.0000	0.0000	0.0000	0.0000;
	3	4	0.228356656	0.116299674	0	0	0	0	0	0	1	-360	360	2.3629	1.6842	-2.3430	-1.6741	0.0000	0.0000	0.0000	0.0000;
	4	5	0.237777928	0.121103899	0	0	0	0	0	0	1	-360	360	2.2230	1.5941	-2.2043	-1.5845	0.0000	0.0000	0.0000	0.0000;
	5	6	0.510994811	0.441115179	0	0	0	0	0	0	1	-360	360	2.1443	1.5545	-2.1060	-1.5215	0.0000	0.0000	0.0000	0.0000;
	6	7	0.116798814	0.386084969	0	0	0	0	0	0	1	-360	360	1.0953	0.5279	-1.0934	-0.5216	0.0000	0.0000	0.0000	0.0000;
	7	8	0.44386045	0.146684835	0	0	0	0	0	0	1	-360	360	0.8934	0.4216	-0.8885	-0.4200	0.0000	0.0000	0.0000	0.0000;
	8	9	0.642643047	0.461704714	0	0	0	0	0	0	1	-360	360	0.6885	0.3200	-0.6843	-0.3170	0.0000	0.0000	0.0000	0.0000;
	9	10	0.651378001	0.461704714	0	0	0	0	0	0	1	-360	360	0.6243	0.2970	-0.6208	-0.2944	0.0000	0.0000	0.0000	0.0000;
	10	11	0.122663712	0.0405551438	0	0	0	0	0	0	1	-360	360	0.5608	0.2744	-0.5602	-0.2742	0.0000	0.0000	0.0000	0.0000;
	11	12	0.233597628	0.0772419507	0	0	0	0	0	0	1	-360	360	0.5152	0.2442	-0.5143	-0.2440	0.0000	0.0000	0.0000	0.0000;
	12	13	0.915922324	0.720633708	0	0	0	0	0	0	1	-360	360	0.4543	0.2090	-0.4517	-0.2069	0.0000	0.0000	0.0000	0.0000;
	13	14	0.337917936	0.444796338	0	0	0	0	0	0	1	-360	360	0.3917	0.1719	-0.3909	-0.1709	0.0000	0.0000	0.0000	0.0000;
	14	15	0.368739846	0.328184702	0	0	0	0	0	0	1	-360	360	0.2709	0.0909	-0.2706	-0.0906	0.0000	0.0000	0.0000	0.0000;
	15	16	0.465635443	0.340039282	0	0	0	0	0	0	1	-360	360	0.2106	0.0806	-0.2103	-0.0804	0.0000	0.0000	0.0000	0.0000;
	16	17	0.804239697	1.07377542	0	0	0	0	0	0	1	-360	360	0.1503	0.0604	-0.1501	-0.0600	0.0000	0.0000	0.0000	0.0000;
	17	18	0.456713311	0.358133116	0	0	0	0	0	0	1	-360	360	0.0901	0.0400	-0.0900	-0.0400	0.0000	0.0000	0.0000	0.0000;
	2	19	0.102323747	0.0976443077	0	0	0	0	0	0	1	-360	360	0.3611	0.1611	-0.3610	-0.1609	0.0000	0.0000	0.0000	0.0000;
	19	20	0.938508419	0.845668336	0	0	0	0	0	0	1	-360	360	0.2710	0.1209	-0.2701	-0.1202	0.0000	0.0000	0.0000	0.0000;
	20	21	0.255497406	0.298485858	0	0	0	0	0	0	1	-360	360	0.1801	0.0802	-0.1800	-0.0801	0.0000	0.0000	0.0000	0.0000;
	21	22	0.442300637	0.584805173	0	0	0	0	0	0	1	-360	360	0.0900	0.0401	-0.0900	-0.0400	0.0000	0.0000	0.0000	0.0000;
	3	23	0.28151509	0.192356167	0	0	0	0	0	0	1	-360	360	0.9396	0.4572	-0.9364	-0.4551	0.0000	0.0000	0.0000	0.0000;
	23	24	0.560284909	0.442425422	0	0	0	0	0	0	1	-360	360	0.8464	0.4051	-0.8413	-0.4010	0.0000	0.0000	0.0000	0.0000;
	24	25	0.559037059	0.43743402	0	0	0	0	0	0	1	-360	360	0.4213	0.2010	-0.4200	-0.2000	0.0000	0.0000	0.0000	0.0000;
	6	26	0.126656834	0.0645138749	0	0	0	0	0	0	1	-360	360	0.9508	0.9736	-0.9482	-0.9723	0.0000	0.0000	0.0000	0.0000;
	26	27	0.177319567	0.0902819893	0	0	0	0	0	0	1	-360	360	0.8882	0.9473	-0.8848	-0.9456	0.0000	0.0000	0.0000	0.0000;
	27	28	0.660736881	0.582559042	0	0	0	0	0	0	1	-360	360	0.8248	0.9206	-0.8135	-0.9107	0.0000	0.0000	0.0000	0.0000;
	28	29	0.501760717	0.437122057	0	0	0	0	0	0	1	-360	360	0.7535	0.8907	-0.7457	-0.8838	0.0000	0.0000	0.0000	0.0000;
	29	30	0.316642084	0.161284687	0	0	0	0	0	0	1	-360	360	0.6257	0.8138	-0.6218	-0.8118	0.0000	0.0000	0.0000	0.0000;
	30	31	0.607952801	0.600840053	0	0	0	0	0	0	1	-360	360	0.4218	0.2118	-0.4202	-0.2103	0.0000	0.0000	0.0000	0.0000;
	31	32	0.193728802	0.225798562	0	0	0	0	0	0	1	-360	360	0.2702	0.1403	-0.2700	-0.1400	0.0000	0.0000	0.0000	0.0000;
	32	33	0.212758523	0.330805188	0	0	0	0	0	0	1	-360	360	0.0600	0.0400	-0.0600	-0.0400	0.0000	0.0000	0.0000	0.0000;
	21	8	1.24785058	1.24785058	0	0	0	0	0	0	0	-360	360	0.0000	0.0000	0.0000	0.0000	0.0000	0.0000	0.0000	0.0000;
	9	15	1.24785058	1.24785058	0	0	0	0	0	0	0	-360	360	0.0000	0.0000	0.0000	0.0000	0.0000	0.0000	0.0000	0.0000;
	12	22	1.24785058	1.24785058	0	0	0	0	0	0	0	-360	360	0.0000	0.0000	0.0000	0.0000	0.0000	0.0000	0.0000	0.0000;
	18	33	0.311962644	0.311962644	0	0	0	0	0	0	0	-360	360	0.0000	0.0000	0.0000	0.0000	0.0000	0.0000	0.0000	0.0000;
	25	29	0.311962644	0.311962644	0	0	0	0	0	0	0	-360	360	0.0000	0.0000	0.0000	0.0000	0.0000	0.0000	0.0000	0.0000;
];

%%-----  OPF Data  -----%%
%% generator cost data
%	1	startup	shutdown	n	x1	y1	...	xn	yn
%	2	startup	shutdown	n	c(n-1)	...	c0
mpc.gencost = [
	2	0	0	3	0	20	0;
];
